@<TRIPOS>MOLECULE
RES
8 7 1 0 1
SMALL
NO_CHARGES
@<TRIPOS>CRYSIN
    7.1400     7.9380     6.6460    90.0000    90.0000    90.0000  1  1
@<TRIPOS>ATOM
       1 C            0.9322    -0.0690    -0.0093 C             1 RES     
       2 C            2.4442    -0.0690    -0.0093 C             1 RES     
       3 H            0.5479     0.5089    -0.8551 H             1 RES     
       4 H            0.5479     0.3745     0.9141 H             1 RES     
       5 H            0.5479    -1.0904    -0.0870 H             1 RES     
       6 H            2.8285     0.9524     0.0683 H             1 RES     
       7 H            2.8286    -0.5125    -0.9327 H             1 RES     
       8 H            2.8286    -0.6469     0.8364 H             1 RES     
@<TRIPOS>BOND
       1        5        1 1
       2        8        2 1
       3        4        1 1
       4        7        2 1
       5        3        1 1
       6        2        6 1
       7        2        1 1
@<TRIPOS>SUBSTRUCTURE
       1 RES             1 RESIDUE    0 **** ROOT      0
